<?xml version="1.0" encoding="UTF-8"?>

<!-- generated on Mon Dec 14 10:03:56 2020 by Eclipse SUMO duarouter Version 1.8.0
<configuration xmlns:xsi="http://www.w3.org/2001/XMLSchema-instance" xsi:noNamespaceSchemaLocation="http://sumo.dlr.de/xsd/duarouterConfiguration.xsd">

    <input>
        <net-file value="scenarios/two_ways/bid_sv/map.net.xml"/>
        <route-files value="/tmp/tmpwew6fpxk/trips.trips.xml"/>
    </input>

    <output>
        <output-file value="scenarios/two_ways/bid_sv/traffic/1.rou.xml"/>
        <alternatives-output value="scenarios/two_ways/bid_sv/traffic/1.rou.alt.xml"/>
    </output>

    <processing>
        <unsorted-input value="true"/>
        <repair value="true"/>
    </processing>

    <report>
        <error-log value="/tmp/smarts/_duarouter_routing/traffic/1.log"/>
        <no-step-log value="true"/>
    </report>

    <random_number>
        <seed value="42"/>
    </random_number>

</configuration>
-->

<routes xmlns:xsi="http://www.w3.org/2001/XMLSchema-instance" xsi:noNamespaceSchemaLocation="http://sumo.dlr.de/xsd/routes_file.xsd">
    <vType id="actor-car--2142258604095578803" minGap="2.50" speedFactor="normc(1.00,0.20,0.20,2.00)" vClass="passenger" impatience="1.00" lcCooperative="0.25" lcImpatience="1" jmDriveAfterYellowTime="1.0" jmDriveAfterRedTime="1.5" accel="2.6" decel="4.5" sigma="0.5"/>
    <vehicle id="car-flow-route--gneE1_0_35--gneE1_0_100-822783154789447107--2491813713015605309--0-0.0" type="actor-car--2142258604095578803" depart="0.00" departLane="0" departPos="35.00" departSpeed="max" arrivalLane="0" arrivalPos="100.00">
        <route edges="-gneE1"/>
    </vehicle>
    <vType id="actor-car--41120191726325902" minGap="2.50" speedFactor="normc(0.80,0.20,0.20,2.00)" vClass="passenger" impatience="0.50" lcCooperative="0.5" lcImpatience="0" jmDriveAfterYellowTime="1.0" accel="2.6" decel="4.5" sigma="0.5"/>
    <vehicle id="car-flow-route--gneE1_0_35--gneE1_0_100-822783154789447107--2491813713015605309--0-1.0" type="actor-car--41120191726325902" depart="0.00" departLane="0" departPos="35.00" departSpeed="max" arrivalLane="0" arrivalPos="100.00">
        <route edges="-gneE1"/>
    </vehicle>
</routes>
