<?xml version="1.0" encoding="UTF-8"?>

<!-- generated on Thu Dec 10 20:45:03 2020 by Eclipse SUMO duarouter Version 1.8.0
<configuration xmlns:xsi="http://www.w3.org/2001/XMLSchema-instance" xsi:noNamespaceSchemaLocation="http://sumo.dlr.de/xsd/duarouterConfiguration.xsd">

    <input>
        <net-file value="scenarios/intersections/4lane_sv/map.net.xml"/>
        <route-files value="/tmp/tmp5tv_pzgc/trips.trips.xml"/>
    </input>

    <output>
        <output-file value="scenarios/intersections/4lane_sv/traffic/turns.rou.xml"/>
        <alternatives-output value="scenarios/intersections/4lane_sv/traffic/turns.rou.alt.xml"/>
    </output>

    <processing>
        <unsorted-input value="true"/>
        <repair value="true"/>
    </processing>

    <report>
        <error-log value="/tmp/smarts/_duarouter_routing/traffic/turns.log"/>
        <no-step-log value="true"/>
    </report>

    <random_number>
        <seed value="42"/>
    </random_number>

</configuration>
-->

<routes xmlns:xsi="http://www.w3.org/2001/XMLSchema-instance" xsi:noNamespaceSchemaLocation="http://sumo.dlr.de/xsd/routes_file.xsd">
    <vType id="actor-car-3259987881199421174" minGap="2.50" speedFactor="normc(1.00,0.20,0.20,2.00)" vClass="passenger" impatience="1.00" lcCooperative="0.25" lcImpatience="1" jmDriveAfterYellowTime="1.0" jmDriveAfterRedTime="1.5" accel="2.6" decel="4.5" sigma="0.5"/>
    <vehicle id="car-flow-route-edge-east-EW_0_random-edge-north-SN_0_random--3277806329082726267--8488124006841786450--7-0.0" type="actor-car-3259987881199421174" depart="0.00" departLane="0" departPos="random" departSpeed="max" arrivalLane="0" arrivalPos="random">
        <route edges="edge-east-EW edge-north-SN"/>
    </vehicle>
    <vType id="actor-car-5139314280027725617" minGap="2.50" speedFactor="normc(0.80,0.20,0.20,2.00)" vClass="passenger" impatience="0.50" lcCooperative="0.5" lcImpatience="0" jmDriveAfterYellowTime="1.0" accel="2.6" decel="4.5" sigma="0.5"/>
    <vehicle id="car-flow-route-edge-east-EW_0_random-edge-north-SN_0_random--3277806329082726267--8488124006841786450--7-1.0" type="actor-car-5139314280027725617" depart="0.00" departLane="0" departPos="random" departSpeed="max" arrivalLane="0" arrivalPos="random">
        <route edges="edge-east-EW edge-north-SN"/>
    </vehicle>
    <vehicle id="car-flow-route-edge-east-EW_0_random-edge-south-NS_0_random-556714040056515771--8488124006841786450--3-0.0" type="actor-car-3259987881199421174" depart="0.00" departLane="0" departPos="random" departSpeed="max" arrivalLane="0" arrivalPos="random">
        <route edges="edge-east-EW edge-south-NS"/>
    </vehicle>
    <vehicle id="car-flow-route-edge-east-EW_0_random-edge-south-NS_0_random-556714040056515771--8488124006841786450--3-1.0" type="actor-car-5139314280027725617" depart="0.00" departLane="0" departPos="random" departSpeed="max" arrivalLane="0" arrivalPos="random">
        <route edges="edge-east-EW edge-south-NS"/>
    </vehicle>
    <vehicle id="car-flow-route-edge-north-NS_0_random-edge-east-WE_0_random-5816216189082391195--8488124006841786450--2-0.0" type="actor-car-3259987881199421174" depart="0.00" departLane="0" departPos="random" departSpeed="max" arrivalLane="0" arrivalPos="random">
        <route edges="edge-north-NS edge-east-WE"/>
    </vehicle>
    <vehicle id="car-flow-route-edge-north-NS_0_random-edge-east-WE_0_random-5816216189082391195--8488124006841786450--2-1.0" type="actor-car-5139314280027725617" depart="0.00" departLane="0" departPos="random" departSpeed="max" arrivalLane="0" arrivalPos="random">
        <route edges="edge-north-NS edge-east-WE"/>
    </vehicle>
    <vehicle id="car-flow-route-edge-north-NS_0_random-edge-west-EW_0_random-487383414315970149--8488124006841786450--6-0.0" type="actor-car-3259987881199421174" depart="0.00" departLane="0" departPos="random" departSpeed="max" arrivalLane="0" arrivalPos="random">
        <route edges="edge-north-NS edge-west-EW"/>
    </vehicle>
    <vehicle id="car-flow-route-edge-north-NS_0_random-edge-west-EW_0_random-487383414315970149--8488124006841786450--6-1.0" type="actor-car-5139314280027725617" depart="0.00" departLane="0" departPos="random" departSpeed="max" arrivalLane="0" arrivalPos="random">
        <route edges="edge-north-NS edge-west-EW"/>
    </vehicle>
    <vehicle id="car-flow-route-edge-south-SN_0_random-edge-east-WE_0_random--7098270920286817548--8488124006841786450--4-0.0" type="actor-car-3259987881199421174" depart="0.00" departLane="0" departPos="random" departSpeed="max" arrivalLane="0" arrivalPos="random">
        <route edges="edge-south-SN edge-east-WE"/>
    </vehicle>
    <vehicle id="car-flow-route-edge-south-SN_0_random-edge-east-WE_0_random--7098270920286817548--8488124006841786450--4-1.0" type="actor-car-5139314280027725617" depart="0.00" departLane="0" departPos="random" departSpeed="max" arrivalLane="0" arrivalPos="random">
        <route edges="edge-south-SN edge-east-WE"/>
    </vehicle>
    <vehicle id="car-flow-route-edge-south-SN_0_random-edge-west-EW_0_random--169140340735578590--8488124006841786450--0-0.0" type="actor-car-3259987881199421174" depart="0.00" departLane="0" departPos="random" departSpeed="max" arrivalLane="0" arrivalPos="random">
        <route edges="edge-south-SN edge-west-EW"/>
    </vehicle>
    <vehicle id="car-flow-route-edge-south-SN_0_random-edge-west-EW_0_random--169140340735578590--8488124006841786450--0-1.0" type="actor-car-5139314280027725617" depart="0.00" departLane="0" departPos="random" departSpeed="max" arrivalLane="0" arrivalPos="random">
        <route edges="edge-south-SN edge-west-EW"/>
    </vehicle>
    <vehicle id="car-flow-route-edge-west-WE_0_random-edge-north-SN_0_random-5969564128348688333--8488124006841786450--1-0.0" type="actor-car-3259987881199421174" depart="0.00" departLane="0" departPos="random" departSpeed="max" arrivalLane="0" arrivalPos="random">
        <route edges="edge-west-WE edge-north-SN"/>
    </vehicle>
    <vehicle id="car-flow-route-edge-west-WE_0_random-edge-north-SN_0_random-5969564128348688333--8488124006841786450--1-1.0" type="actor-car-5139314280027725617" depart="0.00" departLane="0" departPos="random" departSpeed="max" arrivalLane="0" arrivalPos="random">
        <route edges="edge-west-WE edge-north-SN"/>
    </vehicle>
    <vehicle id="car-flow-route-edge-west-WE_0_random-edge-south-NS_0_random-2264015837790383923--8488124006841786450--5-0.0" type="actor-car-3259987881199421174" depart="0.00" departLane="0" departPos="random" departSpeed="max" arrivalLane="0" arrivalPos="random">
        <route edges="edge-west-WE edge-south-NS"/>
    </vehicle>
    <vehicle id="car-flow-route-edge-west-WE_0_random-edge-south-NS_0_random-2264015837790383923--8488124006841786450--5-1.0" type="actor-car-5139314280027725617" depart="0.00" departLane="0" departPos="random" departSpeed="max" arrivalLane="0" arrivalPos="random">
        <route edges="edge-west-WE edge-south-NS"/>
    </vehicle>
</routes>
